version 2
1
9
.tran 1m 10{return}.kicad adjustpaths{return}.save all{return}.probe alli
4
1
V(/5V_BAT)
 
1
V(/5V_REF)
 
1
V(/GATE)
 
1
V(/VCC)
 
