version 2
1
9
.tran 100u 10 uic{return}.kicad adjustpaths{return}.save all{return}.probe alli
5
1
V(/5V_BAT)
 
1
V(/5V_REF)
 
1
V(/BAT-)
 
1
V(/GATE)
 
1
V(/VCC)
 
