version 2
1
9
.tran 1m 10{return}.kicad adjustpaths{return}.save all{return}.probe alli
2
1
V(/5V_BAT_HI)
 
1
V(/5V_REF)
 
